REMARK  Name = 16500
REMARK  16 active torsions:
REMARK  status: ('A' for Active; 'I' for Inactive)
REMARK    1  A    between atoms: P_1  and  O_8
REMARK    2  A    between atoms: P_1  and  O_12
REMARK    3  A    between atoms: P_2  and  O_7
REMARK    4  A    between atoms: P_2  and  O_12
REMARK    5  A    between atoms: O_5  and  C_23
REMARK    6  A    between atoms: O_6  and  C_24
REMARK    7  A    between atoms: O_7  and  C_31
REMARK    8  A    between atoms: O_8  and  C_32
REMARK    9  A    between atoms: O_9  and  C_27
REMARK   10  A    between atoms: O_10  and  C_28
REMARK   11  A    between atoms: O_11  and  C_29
REMARK   12  A    between atoms: O_13  and  C_33
REMARK   13  A    between atoms: N_18  and  C_26
REMARK   14  A    between atoms: N_22  and  C_37
REMARK   15  A    between atoms: C_25  and  C_31
REMARK   16  A    between atoms: C_30  and  C_33
REMARK                            x       y       z     vdW  Elec       q    Type
REMARK                         _______ _______ _______ _____ _____    ______ ____
ROOT
ATOM      1  P   UNL     1       2.572   1.829  -1.325  0.00  0.00    +0.218 P 
ATOM      2  O   UNL     1       2.072   3.281  -1.111  0.00  0.00    -0.437 OA
ATOM      3  O   UNL     1       4.032   2.256  -1.616  0.00  0.00    -0.517 OA
ENDROOT
BRANCH   1   4
ATOM      4  O   UNL     1       0.941   1.353  -1.000  0.00  0.00    -0.270 OA
BRANCH   4   5
ATOM      5  P   UNL     1       0.701  -0.050  -0.247  0.00  0.00    +0.220 P 
ATOM      6  O   UNL     1      -0.618  -0.662  -0.678  0.00  0.00    -0.437 OA
ATOM      7  O   UNL     1       1.941  -0.908  -0.268  0.00  0.00    -0.517 OA
BRANCH   5   8
ATOM      8  O   UNL     1       0.523   0.432   1.278  0.00  0.00    -0.294 OA
BRANCH   8  14
ATOM      9  O   UNL     1      -0.750  -0.425   3.050  0.00  0.00    -0.340 OA
ATOM     10  C   UNL     1      -0.140  -2.735   1.361  0.00  0.00    +0.179 C 
ATOM     11  C   UNL     1      -1.600  -2.318   1.632  0.00  0.00    +0.177 C 
ATOM     12  C   UNL     1       0.870  -1.969   2.212  0.00  0.00    +0.202 C 
ATOM     13  C   UNL     1      -1.807  -0.890   2.192  0.00  0.00    +0.178 C 
ATOM     14  C   UNL     1       0.516  -0.472   2.361  0.00  0.00    +0.289 C 
BRANCH  10  15
ATOM     15  O   UNL     1       0.028  -4.151   1.649  0.00  0.00    -0.386 OA
ATOM     16  H   UNL     1       0.955  -4.320   1.385  0.00  0.00    +0.210 HD
ENDBRANCH  10  15
BRANCH  12  17
ATOM     17  O   UNL     1       2.211  -2.240   1.786  0.00  0.00    -0.384 OA
ATOM     18  H   UNL     1       2.305  -1.780   0.903  0.00  0.00    +0.210 HD
ENDBRANCH  12  17
BRANCH  11  19
ATOM     19  O   UNL     1      -2.354  -2.422   0.407  0.00  0.00    -0.386 OA
ATOM     20  H   UNL     1      -1.870  -1.815  -0.222  0.00  0.00    +0.210 HD
ENDBRANCH  11  19
BRANCH  13  21
ATOM     21  C   UNL     1      -3.094  -0.844   3.034  0.00  0.00    +0.190 C 
BRANCH  21  22
ATOM     22  O   UNL     1      -3.279   0.459   3.602  0.00  0.00    -0.392 OA
ATOM     23  H   UNL     1      -2.373   0.823   3.684  0.00  0.00    +0.210 HD
ENDBRANCH  21  22
ENDBRANCH  13  21
ENDBRANCH   8  14
ENDBRANCH   5   8
ENDBRANCH   4   5
ENDBRANCH   1   4
BRANCH   1  24
ATOM     24  O   UNL     1       2.266   1.467  -2.921  0.00  0.00    -0.325 OA
BRANCH  24  25
ATOM     25  C   UNL     1       2.589   0.138  -3.279  0.00  0.00    +0.202 C 
BRANCH  25  29
ATOM     26  O   UNL     1       4.543  -1.219  -3.838  0.00  0.00    -0.346 OA
ATOM     27  C   UNL     1       3.713   0.200  -5.534  0.00  0.00    +0.178 C 
ATOM     28  C   UNL     1       3.390  -1.232  -5.955  0.00  0.00    +0.195 C 
ATOM     29  C   UNL     1       3.918   0.077  -4.028  0.00  0.00    +0.178 C 
ATOM     30  C   UNL     1       4.235  -2.048  -4.969  0.00  0.00    +0.253 C 
BRANCH  30  31
ATOM     31  N   UNL     1       3.674  -3.293  -4.479  0.00  0.00    -0.286 N 
ATOM     32  N   UNL     1       3.689  -5.409  -3.748  0.00  0.00    -0.231 NA
ATOM     33  N   UNL     1       1.435  -2.634  -3.787  0.00  0.00    -0.216 NA
ATOM     34  N   UNL     1       0.335  -4.386  -2.523  0.00  0.00    -0.219 NA
ATOM     35  C   UNL     1       2.449  -3.501  -3.908  0.00  0.00    +0.167 A 
ATOM     36  C   UNL     1       4.379  -4.467  -4.356  0.00  0.00    +0.203 A 
ATOM     37  C   UNL     1       2.490  -4.799  -3.423  0.00  0.00    +0.147 A 
ATOM     38  C   UNL     1       1.364  -5.238  -2.706  0.00  0.00    +0.147 A 
ATOM     39  C   UNL     1       0.440  -3.136  -3.028  0.00  0.00    +0.225 A 
BRANCH  38  40
ATOM     40  N   UNL     1       1.270  -6.490  -2.123  0.00  0.00    -0.341 N 
ATOM     41  H   UNL     1       2.127  -7.017  -2.043  0.00  0.00    +0.144 HD
ATOM     42  H   UNL     1       0.525  -6.571  -1.445  0.00  0.00    +0.144 HD
ENDBRANCH  38  40
ENDBRANCH  30  31
BRANCH  28  43
ATOM     43  O   UNL     1       3.785  -1.457  -7.319  0.00  0.00    -0.385 OA
ATOM     44  H   UNL     1       4.482  -0.781  -7.475  0.00  0.00    +0.210 HD
ENDBRANCH  28  43
BRANCH  27  45
ATOM     45  O   UNL     1       4.943   0.581  -6.197  0.00  0.00    -0.386 OA
ATOM     46  H   UNL     1       5.246   1.382  -5.723  0.00  0.00    +0.210 HD
ENDBRANCH  27  45
ENDBRANCH  25  29
ENDBRANCH  24  25
ENDBRANCH   1  24
TORSDOF 16
