HMDB0001262 (Maltotriose).sdf
  ChemDraw02122322232D

 78 84  0  0  1  0  0  0  0  0999 V2000
    3.4181    1.5959    0.0000 C   0  0  0  0  0  0  0  0  0  0  0  0
    3.4181    2.0043    0.0000 C   0  0  0  0  0  0  0  0  0  0  0  0
    2.8754    1.3992    0.0000 O   0  0  0  0  0  0  0  0  0  0  0  0
    3.7774    1.3898    0.0000 C   0  0  0  0  0  0  0  0  0  0  0  0
    3.7774    2.2122    0.0000 O   0  0  0  0  0  0  0  0  0  0  0  0
    3.0626    2.2103    0.0000 C   0  0  0  0  0  0  0  0  0  0  0  0
    2.2477    1.1421    0.0000 C   0  0  0  0  0  0  0  0  0  0  0  0
    4.1347    1.5959    0.0000 C   0  0  0  0  0  0  0  0  0  0  0  0
    3.7774    0.9775    0.0000 O   0  0  0  0  0  0  0  0  0  0  0  0
    4.1347    2.0043    0.0000 C   0  0  0  0  0  0  0  0  0  0  0  0
    2.7072    2.0043    0.0000 O   0  0  0  0  0  0  0  0  0  0  0  0
    1.8903    1.3481    0.0000 O   0  0  0  0  0  0  0  0  0  0  0  0
    2.2477    0.7317    0.0000 C   0  0  0  0  0  0  0  0  0  0  0  0
    4.4903    1.3898    0.0000 O   0  0  0  0  0  0  0  0  0  0  0  0
    4.7738    2.3522    0.0000 O   0  0  0  0  0  0  0  0  0  0  0  0
    1.5310    1.1421    0.0000 C   0  0  0  0  0  0  0  0  0  0  0  0
    1.8903    0.5256    0.0000 C   0  0  0  0  0  0  0  0  0  0  0  0
    2.6031    0.5256    0.0000 O   0  0  0  0  0  0  0  0  0  0  0  0
    5.3543    2.6661    0.0000 C   0  0  0  0  0  0  0  0  0  0  0  0
    1.5310    0.7317    0.0000 C   0  0  0  0  0  0  0  0  0  0  0  0
    1.1756    1.3463    0.0000 C   0  0  0  0  0  0  0  0  0  0  0  0
    1.8903    0.1134    0.0000 O   0  0  0  0  0  0  0  0  0  0  0  0
    5.3543    3.0764    0.0000 C   0  0  0  0  0  0  0  0  0  0  0  0
    5.7136    2.4619    0.0000 C   0  0  0  0  0  0  0  0  0  0  0  0
    1.1775    0.5256    0.0000 O   0  0  0  0  0  0  0  0  0  0  0  0
    0.8182    1.1421    0.0000 O   0  0  0  0  0  0  0  0  0  0  0  0
    5.7136    3.2844    0.0000 O   0  0  0  0  0  0  0  0  0  0  0  0
    4.9970    3.2825    0.0000 C   0  0  0  0  0  0  0  0  0  0  0  0
    6.0691    2.6661    0.0000 C   0  0  0  0  0  0  0  0  0  0  0  0
    5.7136    2.0478    0.0000 O   0  0  0  0  0  0  0  0  0  0  0  0
    6.0691    3.0764    0.0000 C   0  0  0  0  0  0  0  0  0  0  0  0
    4.6093    3.0613    0.0000 O   0  0  0  0  0  0  0  0  0  0  0  0
    6.4264    2.4619    0.0000 O   0  0  0  0  0  0  0  0  0  0  0  0
    6.4264    3.2844    0.0000 O   0  0  0  0  0  0  0  0  0  0  0  0
   -0.3058   -0.0314    0.0000 C   0  0  0  0  0  0  0  0  0  0  0  0
   -0.3058    0.3769    0.0000 C   0  0  0  0  0  0  0  0  0  0  0  0
   -0.8483   -0.2281    0.0000 O   0  0  0  0  0  0  0  0  0  0  0  0
    0.0537   -0.2374    0.0000 C   0  0  0  0  0  0  0  0  0  0  0  0
    0.0537    0.5851    0.0000 O   0  0  0  0  0  0  0  0  0  0  0  0
   -0.6613    0.5832    0.0000 C   0  0  0  0  0  0  0  0  0  0  0  0
    0.4109   -0.0314    0.0000 C   0  0  0  0  0  0  0  0  0  0  0  0
    0.0537   -0.6496    0.0000 O   0  0  0  0  0  0  0  0  0  0  0  0
    0.4109    0.3769    0.0000 C   0  0  0  0  0  0  0  0  0  0  0  0
   -1.0166    0.3769    0.0000 O   0  0  0  0  0  0  0  0  0  0  0  0
    0.7665   -0.2374    0.0000 O   0  0  0  0  0  0  0  0  0  0  0  0
   -3.3360   -1.4304    0.0000 C   0  0  0  0  0  0  0  0  0  0  0  0
   -3.6932   -1.2244    0.0000 O   0  0  0  0  0  0  0  0  0  0  0  0
   -3.3360   -1.8407    0.0000 C   0  0  0  0  0  0  0  0  0  0  0  0
   -4.0526   -1.4304    0.0000 C   0  0  0  0  0  0  0  0  0  0  0  0
   -3.6932   -2.0469    0.0000 C   0  0  0  0  0  0  0  0  0  0  0  0
   -2.9804   -2.0469    0.0000 O   0  0  0  0  0  0  0  0  0  0  0  0
   -4.0526   -1.8407    0.0000 C   0  0  0  0  0  0  0  0  0  0  0  0
   -4.4079   -1.2263    0.0000 C   0  0  0  0  0  0  0  0  0  0  0  0
   -3.6932   -2.4591    0.0000 O   0  0  0  0  0  0  0  0  0  0  0  0
   -4.4060   -2.0469    0.0000 O   0  0  0  0  0  0  0  0  0  0  0  0
   -4.7654   -1.4304    0.0000 O   0  0  0  0  0  0  0  0  0  0  0  0
   -2.0924   -0.9246    0.0000 C   0  0  0  0  0  0  0  0  0  0  0  0
   -2.0924   -0.5163    0.0000 C   0  0  0  0  0  0  0  0  0  0  0  0
   -2.6353   -1.1215    0.0000 O   0  0  0  0  0  0  0  0  0  0  0  0
   -1.7333   -1.1309    0.0000 C   0  0  0  0  0  0  0  0  0  0  0  0
   -1.7333   -0.3084    0.0000 O   0  0  0  0  0  0  0  0  0  0  0  0
   -2.4480   -0.3103    0.0000 C   0  0  0  0  0  0  0  0  0  0  0  0
   -1.3761   -0.9246    0.0000 C   0  0  0  0  0  0  0  0  0  0  0  0
   -1.7333   -1.5431    0.0000 O   0  0  0  0  0  0  0  0  0  0  0  0
   -1.3761   -0.5163    0.0000 C   0  0  0  0  0  0  0  0  0  0  0  0
   -2.8036   -0.5163    0.0000 O   0  0  0  0  0  0  0  0  0  0  0  0
   -1.0205   -1.1309    0.0000 O   0  0  0  0  0  0  0  0  0  0  0  0
   -5.7117   -2.6662    0.0000 C   0  0  0  0  0  0  0  0  0  0  0  0
   -5.7117   -2.2578    0.0000 C   0  0  0  0  0  0  0  0  0  0  0  0
   -5.3523   -2.8722    0.0000 C   0  0  0  0  0  0  0  0  0  0  0  0
   -5.3523   -2.0497    0.0000 O   0  0  0  0  0  0  0  0  0  0  0  0
   -6.0673   -2.0516    0.0000 C   0  0  0  0  0  0  0  0  0  0  0  0
   -4.9951   -2.6662    0.0000 C   0  0  0  0  0  0  0  0  0  0  0  0
   -5.3523   -3.2844    0.0000 O   0  0  0  0  0  0  0  0  0  0  0  0
   -4.9951   -2.2578    0.0000 C   0  0  0  0  0  0  0  0  0  0  0  0
   -6.4226   -2.2578    0.0000 O   0  0  0  0  0  0  0  0  0  0  0  0
   -4.6395   -2.8722    0.0000 O   0  0  0  0  0  0  0  0  0  0  0  0
   -6.4264   -3.0540    0.0000 O   0  0  0  0  0  0  0  0  0  0  0  0
  1  2  1  0      
  1  3  1  6      
  1  4  1  0      
  2  5  1  0      
  2  6  1  1      
  7  3  1  6      
  4  8  1  0      
  4  9  1  1      
  5 10  1  0      
  6 11  1  0      
  7 12  1  0      
  7 13  1  0      
  8 14  1  6      
 10 15  1  6      
 12 16  1  0      
 13 17  1  0      
 13 18  1  6      
 19 15  1  6      
 16 20  1  0      
 16 21  1  1      
 17 22  1  1      
 19 23  1  0      
 19 24  1  0      
 20 25  1  6      
 21 26  1  0      
 23 27  1  0      
 23 28  1  1      
 24 29  1  0      
 24 30  1  1      
 27 31  1  0      
 28 32  1  0      
 29 33  1  6      
 31 34  1  4      
  8 10  1  0      
 17 20  1  0      
 29 31  1  0      
 35 36  1  0      
 35 37  1  6      
 35 38  1  0      
 36 39  1  0      
 36 40  1  1      
 38 41  1  0      
 38 42  1  1      
 39 43  1  0      
 40 44  1  0      
 41 45  1  6      
 41 43  1  0      
 46 47  1  0      
 46 48  1  0      
 47 49  1  0      
 48 50  1  0      
 48 51  1  6      
 49 52  1  0      
 49 53  1  1      
 50 54  1  1      
 52 55  1  6      
 53 56  1  0      
 50 52  1  0      
 57 58  1  0      
 57 59  1  6      
 57 60  1  0      
 58 61  1  0      
 58 62  1  1      
 60 63  1  0      
 60 64  1  1      
 61 65  1  0      
 62 66  1  0      
 63 67  1  6      
 63 65  1  0      
 65 37  1  6      
 46 59  1  6      
 68 69  1  0      
 68 70  1  0      
 69 71  1  0      
 69 72  1  1      
 70 73  1  0      
 70 74  1  1      
 71 75  1  0      
 72 76  1  0      
 73 77  1  6      
 73 75  1  0      
 75 55  1  6      
 68 78  1  6      
 43 25  1  6      
M  END
>  <ALOGPS_LOGP>
-2.74

>  <ALOGPS_LOGS>
0.04

>  <ALOGPS_SOLUBILITY>
5.54e+02 g/l

>  <DATABASE_ID>
HMDB0001262

>  <DATABASE_NAME>
hmdb

>  <EXACT_MASS>
504.169034976

>  <FORMULA>
C18H32O16

>  <GENERIC_NAME>
Maltotriose

>  <HMDB_ID>
HMDB0001262

>  <INCHI_IDENTIFIER>
InChI=1S/C18H32O16/c19-1-4-7(22)8(23)12(27)17(31-4)34-15-6(3-21)32-18(13(28)10(15)25)33-14-5(2-20)30-16(29)11(26)9(14)24/h4-29H,1-3H2/t4-,5-,6-,7-,8+,9-,10-,11-,12-,13-,14-,15-,16?,17-,18-/m1/s1

>  <INCHI_KEY>
FYGDTMLNYKFZSV-DZOUCCHMSA-N

>  <JCHEM_ACCEPTOR_COUNT>
16

>  <JCHEM_ATOM_COUNT>
66

>  <JCHEM_AVERAGE_POLARIZABILITY>
46.65392495671412

>  <JCHEM_BIOAVAILABILITY>
0

>  <JCHEM_DONOR_COUNT>
11

>  <JCHEM_FORMAL_CHARGE>
0

>  <JCHEM_GHOSE_FILTER>
0

>  <JCHEM_IUPAC>
(2R,3R,4S,5S,6R)-2-{[(2R,3S,4R,5R,6R)-4,5-dihydroxy-2-(hydroxymethyl)-6-{[(2R,3S,4R,5R)-4,5,6-trihydroxy-2-(hydroxymethyl)oxan-3-yl]oxy}oxan-3-yl]oxy}-6-(hydroxymethyl)oxane-3,4,5-triol

>  <JCHEM_LOGP>
-6.474210509333335

>  <JCHEM_MDDR_LIKE_RULE>
1

>  <JCHEM_NUMBER_OF_RINGS>
3

>  <JCHEM_PHYSIOLOGICAL_CHARGE>
0

>  <JCHEM_PKA>
11.961306122075309

>  <JCHEM_PKA_STRONGEST_ACIDIC>
11.21522272414523

>  <JCHEM_PKA_STRONGEST_BASIC>
-3.6483775752014047

>  <JCHEM_POLAR_SURFACE_AREA>
268.67999999999995

>  <JCHEM_REFRACTIVITY>
100.74999999999999

>  <JCHEM_ROTATABLE_BOND_COUNT>
7

>  <JCHEM_RULE_OF_FIVE>
0

>  <JCHEM_TRADITIONAL_IUPAC>
maltotriose

>  <JCHEM_VEBER_RULE>
0

>  <MOLECULAR_WEIGHT>
504.4371

>  <SMILES>
OC[C@H]1O[C@H](O[C@H]2[C@H](O)[C@@H](O)[C@@H](O[C@H]3[C@H](O)[C@@H](O)C(O)O[C@@H]3CO)O[C@@H]2CO)[C@H](O)[C@@H](O)[C@@H]1O

>  <SYNONYMS>
4-O-(4-O-Hexopyranosylhexopyranosyl)hexose; Amylotriose; D-(+)-Maltotriose; delta-(+)-Maltotriose; Maltotriose; O-alpha-D-Glucopyranosyl-(1beta94)-O-alpha-D-glucopyranosyl-(1beta94)-O-alpha-D-glucose;
 O-alpha-delta-Glucopyranosyl-(1beta94)-O-alpha-delta-glucopyranosyl-(1beta94)-O-alpha-delta-glucose

$$$$
