REMARK  Name = HMDB0001262 (Maltotriose).sdf
REMARK  42 active torsions:
REMARK  status: ('A' for Active; 'I' for Inactive)
REMARK    1  A    between atoms: C_1  and  O_3
REMARK    2  A    between atoms: C_2  and  C_6
REMARK    3  A    between atoms: O_3  and  C_7
REMARK    4  A    between atoms: C_4  and  O_9
REMARK    5  A    between atoms: C_6  and  O_11
REMARK    6  A    between atoms: C_8  and  O_14
REMARK    7  A    between atoms: C_10  and  O_15
REMARK    8  A    between atoms: C_13  and  O_18
REMARK    9  A    between atoms: O_15  and  C_19
REMARK   10  A    between atoms: C_16  and  C_21
REMARK   11  A    between atoms: C_17  and  O_22
REMARK   12  A    between atoms: C_20  and  O_25
REMARK   13  A    between atoms: C_21  and  O_26
REMARK   14  A    between atoms: C_23  and  C_28
REMARK   15  A    between atoms: C_24  and  O_30
REMARK   16  A    between atoms: O_25  and  C_43
REMARK   17  A    between atoms: C_28  and  O_32
REMARK   18  A    between atoms: C_29  and  O_33
REMARK   19  A    between atoms: C_31  and  O_34
REMARK   20  A    between atoms: C_35  and  O_37
REMARK   21  A    between atoms: C_36  and  C_40
REMARK   22  A    between atoms: O_37  and  C_65
REMARK   23  A    between atoms: C_38  and  O_42
REMARK   24  A    between atoms: C_40  and  O_44
REMARK   25  A    between atoms: C_41  and  O_45
REMARK   26  A    between atoms: C_46  and  O_59
REMARK   27  A    between atoms: C_48  and  O_51
REMARK   28  A    between atoms: C_49  and  C_53
REMARK   29  A    between atoms: C_50  and  O_54
REMARK   30  A    between atoms: C_52  and  O_55
REMARK   31  A    between atoms: C_53  and  O_56
REMARK   32  A    between atoms: O_55  and  C_75
REMARK   33  A    between atoms: C_57  and  O_59
REMARK   34  A    between atoms: C_58  and  C_62
REMARK   35  A    between atoms: C_60  and  O_64
REMARK   36  A    between atoms: C_62  and  O_66
REMARK   37  A    between atoms: C_63  and  O_67
REMARK   38  A    between atoms: C_68  and  O_78
REMARK   39  A    between atoms: C_69  and  C_72
REMARK   40  A    between atoms: C_70  and  O_74
REMARK   41  A    between atoms: C_72  and  O_76
REMARK   42  A    between atoms: C_73  and  O_77
REMARK                            x       y       z     vdW  Elec       q    Type
REMARK                         _______ _______ _______ _____ _____    ______ ____
ROOT
ATOM      1  C   UNL     1       4.010   1.043  -0.026  0.00  0.00    +0.183 C 
ATOM      2  C   UNL     1       5.787   0.851  -1.013  0.00  0.00    +0.178 C 
ATOM      3  C   UNL     1       4.445   0.693   2.140  0.00  0.00    +0.179 C 
ATOM      4  O   UNL     1       6.794  -0.146  -0.555  0.00  0.00    -0.341 OA
ATOM      5  C   UNL     1       5.871  -0.746   1.904  0.00  0.00    +0.201 C 
ATOM      6  C   UNL     1       6.029  -1.181   0.018  0.00  0.00    +0.282 C 
ENDROOT
BRANCH   5   7
ATOM      7  O   UNL     1       5.761  -1.779   2.875  0.00  0.00    -0.384 OA
ATOM      8  H   UNL     1       6.526  -2.372   2.755  0.00  0.00    +0.210 HD
ENDBRANCH   5   7
BRANCH   3   9
ATOM      9  O   UNL     1       3.878   0.563   3.440  0.00  0.00    -0.386 OA
ATOM     10  H   UNL     1       4.416  -0.095   3.935  0.00  0.00    +0.210 HD
ENDBRANCH   3   9
BRANCH   2  11
ATOM     11  C   UNL     1       6.688   2.133  -1.118  0.00  0.00    +0.190 C 
BRANCH  11  12
ATOM     12  O   UNL     1       7.747   1.872  -2.050  0.00  0.00    -0.392 OA
ATOM     13  H   UNL     1       8.118   1.010  -1.773  0.00  0.00    +0.210 HD
ENDBRANCH  11  12
ENDBRANCH   2  11
BRANCH   1  14
ATOM     14  O   UNL     1       2.671   0.705  -1.074  0.00  0.00    -0.340 OA
BRANCH  14  20
ATOM     15  C   UNL     1      -0.666   0.039  -4.529  0.00  0.00    +0.183 C 
ATOM     16  C   UNL     1       0.315  -1.025  -4.089  0.00  0.00    +0.178 C 
ATOM     17  C   UNL     1       0.152   1.292  -4.890  0.00  0.00    +0.179 C 
ATOM     18  O   UNL     1       0.896  -0.550  -2.885  0.00  0.00    -0.341 OA
ATOM     19  C   UNL     1       1.156   1.771  -3.785  0.00  0.00    +0.201 C 
ATOM     20  C   UNL     1       1.849   0.552  -2.817  0.00  0.00    +0.282 C 
BRANCH  17  21
ATOM     21  O   UNL     1       0.854   1.089  -6.123  0.00  0.00    -0.386 OA
ATOM     22  H   UNL     1       0.245   1.330  -6.846  0.00  0.00    +0.210 HD
ENDBRANCH  17  21
BRANCH  19  23
ATOM     23  O   UNL     1       0.440   2.816  -3.135  0.00  0.00    -0.384 OA
ATOM     24  H   UNL     1       1.097   3.523  -2.975  0.00  0.00    +0.210 HD
ENDBRANCH  19  23
BRANCH  16  25
ATOM     25  C   UNL     1       1.349  -1.548  -5.091  0.00  0.00    +0.190 C 
BRANCH  25  26
ATOM     26  O   UNL     1       2.072  -2.636  -4.502  0.00  0.00    -0.392 OA
ATOM     27  H   UNL     1       1.907  -2.626  -3.536  0.00  0.00    +0.210 HD
ENDBRANCH  25  26
ENDBRANCH  16  25
BRANCH  15  28
ATOM     28  O   UNL     1      -1.636   0.418  -3.518  0.00  0.00    -0.340 OA
BRANCH  28  29
ATOM     29  C   UNL     1      -2.098  -0.557  -2.566  0.00  0.00    +0.282 C 
ATOM     30  O   UNL     1      -2.553   0.199  -1.413  0.00  0.00    -0.341 OA
ATOM     31  C   UNL     1      -3.188  -1.506  -3.128  0.00  0.00    +0.201 C 
ATOM     32  C   UNL     1      -3.541  -0.485  -0.625  0.00  0.00    +0.178 C 
ATOM     33  C   UNL     1      -4.553  -0.854  -2.928  0.00  0.00    +0.179 C 
ATOM     34  C   UNL     1      -4.841  -0.654  -1.435  0.00  0.00    +0.183 C 
BRANCH  31  35
ATOM     35  O   UNL     1      -2.991  -1.852  -4.502  0.00  0.00    -0.384 OA
ATOM     36  H   UNL     1      -3.844  -2.247  -4.781  0.00  0.00    +0.210 HD
ENDBRANCH  31  35
BRANCH  33  37
ATOM     37  O   UNL     1      -5.570  -1.666  -3.530  0.00  0.00    -0.386 OA
ATOM     38  H   UNL     1      -6.412  -1.171  -3.392  0.00  0.00    +0.210 HD
ENDBRANCH  33  37
BRANCH  34  39
ATOM     39  O   UNL     1      -5.861   0.293  -1.133  0.00  0.00    -0.340 OA
BRANCH  39  45
ATOM     40  C   UNL     1      -4.923   3.372  -3.776  0.00  0.00    +0.177 C 
ATOM     41  C   UNL     1      -4.002   2.798  -2.699  0.00  0.00    +0.178 C 
ATOM     42  C   UNL     1      -5.905   2.289  -4.208  0.00  0.00    +0.179 C 
ATOM     43  O   UNL     1      -4.710   2.366  -1.535  0.00  0.00    -0.341 OA
ATOM     44  C   UNL     1      -6.697   1.727  -3.032  0.00  0.00    +0.201 C 
ATOM     45  C   UNL     1      -5.895   1.601  -1.705  0.00  0.00    +0.282 C 
BRANCH  40  46
ATOM     46  O   UNL     1      -4.205   3.802  -4.940  0.00  0.00    -0.386 OA
ATOM     47  H   UNL     1      -3.536   3.128  -5.162  0.00  0.00    +0.210 HD
ENDBRANCH  40  46
BRANCH  42  48
ATOM     48  O   UNL     1      -6.830   2.809  -5.177  0.00  0.00    -0.386 OA
ATOM     49  H   UNL     1      -6.303   3.379  -5.774  0.00  0.00    +0.210 HD
ENDBRANCH  42  48
BRANCH  44  50
ATOM     50  O   UNL     1      -7.315   0.487  -3.431  0.00  0.00    -0.384 OA
ATOM     51  H   UNL     1      -7.866   0.720  -4.207  0.00  0.00    +0.210 HD
ENDBRANCH  44  50
BRANCH  41  52
ATOM     52  C   UNL     1      -2.955   3.827  -2.241  0.00  0.00    +0.190 C 
BRANCH  52  53
ATOM     53  O   UNL     1      -2.101   3.270  -1.240  0.00  0.00    -0.392 OA
ATOM     54  H   UNL     1      -2.622   2.580  -0.788  0.00  0.00    +0.210 HD
ENDBRANCH  52  53
ENDBRANCH  41  52
ENDBRANCH  39  45
ENDBRANCH  34  39
BRANCH  32  55
ATOM     55  C   UNL     1      -3.744   0.231   0.716  0.00  0.00    +0.190 C 
BRANCH  55  56
ATOM     56  O   UNL     1      -2.555   0.085   1.493  0.00  0.00    -0.392 OA
ATOM     57  H   UNL     1      -2.662   0.628   2.296  0.00  0.00    +0.210 HD
ENDBRANCH  55  56
ENDBRANCH  32  55
ENDBRANCH  28  29
ENDBRANCH  15  28
ENDBRANCH  14  20
ENDBRANCH   1  14
BRANCH   6  58
ATOM     58  O   UNL     1       4.945  -1.493  -1.145  0.00  0.00    -0.340 OA
BRANCH  58  64
ATOM     59  C   UNL     1       1.661   2.307  -0.817  0.00  0.00    +0.282 C 
ATOM     60  O   UNL     1       2.770   2.452  -2.157  0.00  0.00    -0.341 OA
ATOM     61  C   UNL     1       0.806   0.584  -0.679  0.00  0.00    +0.201 C 
ATOM     62  C   UNL     1       3.938   1.178  -2.558  0.00  0.00    +0.178 C 
ATOM     63  C   UNL     1       1.956  -1.010  -0.993  0.00  0.00    +0.179 C 
ATOM     64  C   UNL     1       3.730  -0.685  -1.833  0.00  0.00    +0.183 C 
BRANCH  63  65
ATOM     65  O   UNL     1       1.306  -2.230  -1.408  0.00  0.00    -0.386 OA
ATOM     66  H   UNL     1       0.537  -2.308  -0.812  0.00  0.00    +0.210 HD
ENDBRANCH  63  65
BRANCH  61  67
ATOM     67  O   UNL     1      -0.144   0.522   0.377  0.00  0.00    -0.384 OA
ATOM     68  H   UNL     1      -1.044   0.447  -0.015  0.00  0.00    +0.210 HD
ENDBRANCH  61  67
BRANCH  62  69
ATOM     69  C   UNL     1       4.414   1.277  -4.056  0.00  0.00    +0.190 C 
BRANCH  69  70
ATOM     70  O   UNL     1       4.636   2.646  -4.401  0.00  0.00    -0.392 OA
ATOM     71  H   UNL     1       4.039   3.197  -3.860  0.00  0.00    +0.210 HD
ENDBRANCH  69  70
ENDBRANCH  62  69
BRANCH  59  72
ATOM     72  O   UNL     1       2.227   3.106   0.269  0.00  0.00    -0.340 OA
BRANCH  72  73
ATOM     73  C   UNL     1       2.956   2.639   1.442  0.00  0.00    +0.183 C 
ATOM     74  C   UNL     1       4.813   2.497   1.243  0.00  0.00    +0.178 C 
ATOM     75  C   UNL     1       2.037   1.536   2.143  0.00  0.00    +0.179 C 
ATOM     76  O   UNL     1       5.381   0.689   0.838  0.00  0.00    -0.341 OA
ATOM     77  C   UNL     1       2.253  -0.067   1.822  0.00  0.00    +0.201 C 
ATOM     78  C   UNL     1       3.849  -0.671   1.035  0.00  0.00    +0.282 C 
BRANCH  77  79
ATOM     79  O   UNL     1       1.093  -0.905   1.675  0.00  0.00    -0.384 OA
ATOM     80  H   UNL     1       0.315  -0.305   1.660  0.00  0.00    +0.210 HD
ENDBRANCH  77  79
BRANCH  75  81
ATOM     81  O   UNL     1       0.657   1.942   2.197  0.00  0.00    -0.386 OA
ATOM     82  H   UNL     1       0.222   1.679   1.364  0.00  0.00    +0.210 HD
ENDBRANCH  75  81
BRANCH  78  83
ATOM     83  O   UNL     1       4.013  -2.133   0.694  0.00  0.00    -0.340 OA
BRANCH  83  84
ATOM     84  C   UNL     1       3.089  -3.189   1.068  0.00  0.00    +0.183 C 
ATOM     85  C   UNL     1       3.422  -3.862   2.419  0.00  0.00    +0.178 C 
ATOM     86  C   UNL     1       3.186  -4.221  -0.083  0.00  0.00    +0.179 C 
ATOM     87  O   UNL     1       4.427  -4.900   2.347  0.00  0.00    -0.341 OA
ATOM     88  C   UNL     1       4.526  -4.977  -0.082  0.00  0.00    +0.201 C 
ATOM     89  C   UNL     1       5.295  -4.769   1.237  0.00  0.00    +0.279 C 
BRANCH  89  90
ATOM     90  O   UNL     1       6.363  -5.699   1.383  0.00  0.00    -0.365 OA
ATOM     91  H   UNL     1       6.120  -6.496   0.886  0.00  0.00    +0.213 HD
ENDBRANCH  89  90
BRANCH  88  92
ATOM     92  O   UNL     1       5.333  -4.577  -1.202  0.00  0.00    -0.384 OA
ATOM     93  H   UNL     1       5.299  -3.598  -1.264  0.00  0.00    +0.210 HD
ENDBRANCH  88  92
BRANCH  86  94
ATOM     94  O   UNL     1       2.087  -5.138  -0.028  0.00  0.00    -0.386 OA
ATOM     95  H   UNL     1       2.053  -5.580  -0.897  0.00  0.00    +0.210 HD
ENDBRANCH  86  94
BRANCH  85  96
ATOM     96  C   UNL     1       2.179  -4.529   3.035  0.00  0.00    +0.190 C 
BRANCH  96  97
ATOM     97  O   UNL     1       2.509  -5.060   4.322  0.00  0.00    -0.392 OA
ATOM     98  H   UNL     1       3.343  -5.552   4.185  0.00  0.00    +0.210 HD
ENDBRANCH  96  97
ENDBRANCH  85  96
ENDBRANCH  83  84
ENDBRANCH  78  83
BRANCH  74  99
ATOM     99  C   UNL     1       5.599   3.269   2.370  0.00  0.00    +0.190 C 
BRANCH  99 100
ATOM    100  O   UNL     1       7.002   3.137   2.193  0.00  0.00    -0.392 OA
ATOM    101  H   UNL     1       7.248   2.204   2.318  0.00  0.00    +0.210 HD
ENDBRANCH  99 100
ENDBRANCH  74  99
ENDBRANCH  72  73
ENDBRANCH  59  72
ENDBRANCH  58  64
ENDBRANCH   6  58
TORSDOF 42
