REMARK  Name = 
REMARK  18 active torsions:
REMARK  status: ('A' for Active; 'I' for Inactive)
REMARK    1  A    between atoms: C_1  and  O_3
REMARK    2  A    between atoms: C_2  and  C_6
REMARK    3  A    between atoms: O_3  and  C_7
REMARK    4  A    between atoms: C_4  and  O_9
REMARK    5  A    between atoms: C_6  and  O_11
REMARK    6  A    between atoms: C_8  and  O_14
REMARK    7  A    between atoms: C_10  and  O_15
REMARK    8  A    between atoms: C_13  and  O_18
REMARK    9  A    between atoms: O_15  and  C_19
REMARK   10  A    between atoms: C_16  and  C_21
REMARK   11  A    between atoms: C_17  and  O_22
REMARK   12  A    between atoms: C_20  and  O_25
REMARK   13  A    between atoms: C_21  and  O_26
REMARK   14  A    between atoms: C_23  and  C_28
REMARK   15  A    between atoms: C_24  and  O_30
REMARK   16  A    between atoms: C_28  and  O_32
REMARK   17  A    between atoms: C_29  and  O_33
REMARK   18  A    between atoms: C_31  and  O_34
REMARK                            x       y       z     vdW  Elec       q    Type
REMARK                         _______ _______ _______ _____ _____    ______ ____
ROOT
ATOM      1  C   UNL     1       0.563   1.367   0.289  0.00  0.00    +0.183 C 
ATOM      2  C   UNL     1       2.030   0.928   0.167  0.00  0.00    +0.178 C 
ATOM      3  C   UNL     1      -0.386   0.185   0.095  0.00  0.00    +0.179 C 
ATOM      4  O   UNL     1       2.319  -0.198   1.024  0.00  0.00    -0.341 OA
ATOM      5  C   UNL     1       0.024  -0.983   0.997  0.00  0.00    +0.201 C 
ATOM      6  C   UNL     1       1.507  -1.340   0.757  0.00  0.00    +0.282 C 
ENDROOT
BRANCH   5   7
ATOM      7  O   UNL     1      -0.853  -2.087   0.735  0.00  0.00    -0.384 OA
ATOM      8  H   UNL     1      -0.617  -2.441  -0.144  0.00  0.00    +0.210 HD
ENDBRANCH   5   7
BRANCH   3   9
ATOM      9  O   UNL     1      -1.737   0.591   0.363  0.00  0.00    -0.386 OA
ATOM     10  H   UNL     1      -2.227  -0.226   0.595  0.00  0.00    +0.210 HD
ENDBRANCH   3   9
BRANCH   6  11
ATOM     11  O   UNL     1       1.663  -1.799  -0.591  0.00  0.00    -0.340 OA
BRANCH  11  12
ATOM     12  C   UNL     1       2.814  -2.609  -0.889  0.00  0.00    +0.183 C 
ATOM     13  C   UNL     1       2.629  -4.077  -0.446  0.00  0.00    +0.178 C 
ATOM     14  C   UNL     1       4.167  -2.070  -0.374  0.00  0.00    +0.179 C 
ATOM     15  O   UNL     1       3.761  -4.881  -0.820  0.00  0.00    -0.341 OA
ATOM     16  C   UNL     1       5.307  -3.029  -0.728  0.00  0.00    +0.201 C 
ATOM     17  C   UNL     1       4.972  -4.438  -0.218  0.00  0.00    +0.279 C 
BRANCH  17  18
ATOM     18  O   UNL     1       6.015  -5.336  -0.570  0.00  0.00    -0.365 OA
ATOM     19  H   UNL     1       6.821  -4.790  -0.644  0.00  0.00    +0.213 HD
ENDBRANCH  17  18
BRANCH  16  20
ATOM     20  O   UNL     1       6.539  -2.573  -0.154  0.00  0.00    -0.384 OA
ATOM     21  H   UNL     1       6.572  -1.610  -0.332  0.00  0.00    +0.210 HD
ENDBRANCH  16  20
BRANCH  14  22
ATOM     22  O   UNL     1       4.493  -0.779  -0.906  0.00  0.00    -0.386 OA
ATOM     23  H   UNL     1       4.156  -0.717  -1.831  0.00  0.00    +0.210 HD
ENDBRANCH  14  22
BRANCH  13  24
ATOM     24  C   UNL     1       1.408  -4.718  -1.114  0.00  0.00    +0.190 C 
BRANCH  24  25
ATOM     25  O   UNL     1       1.255  -6.055  -0.640  0.00  0.00    -0.392 OA
ATOM     26  H   UNL     1       2.127  -6.481  -0.764  0.00  0.00    +0.210 HD
ENDBRANCH  24  25
ENDBRANCH  13  24
ENDBRANCH  11  12
ENDBRANCH   6  11
BRANCH   2  27
ATOM     27  C   UNL     1       3.000   2.062   0.529  0.00  0.00    +0.190 C 
BRANCH  27  28
ATOM     28  O   UNL     1       4.322   1.767   0.072  0.00  0.00    -0.392 OA
ATOM     29  H   UNL     1       4.424   0.790   0.061  0.00  0.00    +0.210 HD
ENDBRANCH  27  28
ENDBRANCH   2  27
BRANCH   1  30
ATOM     30  O   UNL     1       0.216   2.521  -0.468  0.00  0.00    -0.340 OA
BRANCH  30  31
ATOM     31  C   UNL     1       0.203   2.568  -1.894  0.00  0.00    +0.282 C 
ATOM     32  O   UNL     1       1.288   1.945  -2.573  0.00  0.00    -0.341 OA
ATOM     33  C   UNL     1      -1.206   2.430  -2.528  0.00  0.00    +0.201 C 
ATOM     34  C   UNL     1       1.025   0.712  -3.258  0.00  0.00    +0.178 C 
ATOM     35  C   UNL     1      -1.424   1.122  -3.277  0.00  0.00    +0.179 C 
ATOM     36  C   UNL     1      -0.216   0.784  -4.145  0.00  0.00    +0.177 C 
BRANCH  36  37
ATOM     37  O   UNL     1      -0.453  -0.469  -4.790  0.00  0.00    -0.386 OA
ATOM     38  H   UNL     1      -1.353  -0.394  -5.173  0.00  0.00    +0.210 HD
ENDBRANCH  36  37
BRANCH  35  39
ATOM     39  O   UNL     1      -2.583   1.224  -4.123  0.00  0.00    -0.386 OA
ATOM     40  H   UNL     1      -3.278   1.634  -3.566  0.00  0.00    +0.210 HD
ENDBRANCH  35  39
BRANCH  33  41
ATOM     41  O   UNL     1      -2.280   2.627  -1.600  0.00  0.00    -0.384 OA
ATOM     42  H   UNL     1      -2.023   2.194  -0.754  0.00  0.00    +0.210 HD
ENDBRANCH  33  41
BRANCH  34  43
ATOM     43  C   UNL     1       2.283   0.350  -4.062  0.00  0.00    +0.190 C 
BRANCH  43  44
ATOM     44  O   UNL     1       3.404   0.229  -3.173  0.00  0.00    -0.392 OA
ATOM     45  H   UNL     1       3.519   1.127  -2.792  0.00  0.00    +0.210 HD
ENDBRANCH  43  44
ENDBRANCH  34  43
ENDBRANCH  30  31
ENDBRANCH   1  30
TORSDOF 18
